<additional>
    <chargingStation id="fast_charger" lane="2[1][1][1]b_0" startPos="35" endPos="55" power="250000" efficiency="0.95"/>
</additional>
