<additional>
    <edgeData id="meandata" freq="300" file="/tmp/edge_meandata.xml"/>
</additional>
