<additional>
    <edgeData id="base" file="base_edgedata.xml"/>
</additional>
