<additional>
    <edgeData id="base" file="priced_edgedata2.xml"/>
</additional>
