<additional>
    <edgeData id="base" file="priced_edgedata.xml"/>
</additional>
