<?xml version="1.0" encoding="UTF-8"?>

<!-- generated on 2026-03-09T10:20:18.167162-05:00 by Eclipse SUMO duarouter 1.26.0
<duarouterConfiguration xmlns:xsi="http://www.w3.org/2001/XMLSchema-instance" xsi:noNamespaceSchemaLocation="http://sumo.dlr.de/xsd/duarouterConfiguration.xsd">

    <input>
        <net-file value="acosta_buslanes.net.xml"/>
        <route-files value="acosta.rou.xml"/>
        <weight-files value="pricing_weights.xml"/>
    </input>

    <output>
        <output-file value="priced_routes_test.rou.xml"/>
    </output>

    <report>
        <ignore-errors value="true"/>
    </report>

</duarouterConfiguration>
-->

<routes xmlns:xsi="http://www.w3.org/2001/XMLSchema-instance" xsi:noNamespaceSchemaLocation="http://sumo.dlr.de/xsd/routes_file.xsd">
    <vehicle id="Audinot_7_0" type="private" depart="0.00" departLane="best" departPos="0.00" arrivalPos="-1.00">
        <route edges="131 117 209"/>
    </vehicle>
    <vehicle id="Costa_12_0" type="private" depart="0.00" departLane="best" departPos="0.00" arrivalPos="-1.00">
        <route edges="78[0] 56a 56b 77bc 77cd 53cd 53[0] 53[1][0] 79 68 11 84 180 136"/>
    </vehicle>
    <vehicle id="Pepoli_3_0" type="ignoring" depart="0.00" departLane="best" departPos="0.00" arrivalPos="-1.00">
        <route edges="210 43[0] 118 65 57[0] 57[1] 62 159 42 39 35 38 15 14"/>
    </vehicle>
    <vehicle id="Silvani_11_0" type="private" depart="0.00" departLane="best" departPos="0.00" arrivalPos="-1.00">
        <route edges="203[0] 114"/>
    </vehicle>
    <vehicle id="Togliatti_71_0" type="private" depart="0.00" departLane="best" departPos="0.00" arrivalPos="-1.00">
        <route edges="85 72[0] 72[1] 69 161 122 3 2 202 34 113 209"/>
    </vehicle>
    <vehicle id="Turati_10_0" type="private" depart="0.00" departLane="best" departPos="0.00" arrivalPos="-1.00">
        <route edges="195 61 58[0] 58[1] 66 119 116 46 201 201c 204a[0] 204b[0] 204[1][0] 204[1][1]"/>
    </vehicle>
    <vehicle id="XXI_Aprile_7_0" type="private" depart="0.00" departLane="best" departPos="0.00" arrivalPos="-1.00">
        <route edges="8 13 104 16 37 36 40 41 160 61 58[0] 58[1] 66 117 209"/>
    </vehicle>
    <vehicle id="Costa_12_1" type="private" depart="2.00" departLane="best" departPos="0.00" arrivalPos="-1.00">
        <route edges="78[0] 56a 56b 77bc 77cd 53cd 53[0] 53[1][0] 79 68 11 84 180 136"/>
    </vehicle>
    <vehicle id="Silvani_11_1" type="private" depart="2.00" departLane="best" departPos="0.00" arrivalPos="-1.00">
        <route edges="203[0] 114"/>
    </vehicle>
    <vehicle id="Togliatti_71_2" type="private" depart="2.00" departLane="best" departPos="0.00" arrivalPos="-1.00">
        <route edges="85 72[0] 72[1] 69 161 122 3 2 202 34 113 209"/>
    </vehicle>
    <vehicle id="Pepoli_3_2" type="ignoring" depart="3.00" departLane="best" departPos="0.00" arrivalPos="-1.00">
        <route edges="210 43[0] 118 65 57[0] 57[1] 62 159 42 39 35 38 15 14"/>
    </vehicle>
    <vehicle id="XXI_Aprile_7_1" type="private" depart="3.00" departLane="best" departPos="0.00" arrivalPos="-1.00">
        <route edges="8 13 104 16 37 36 40 41 160 61 58[0] 58[1] 66 117 209"/>
    </vehicle>
    <vehicle id="Silvani_7_2" type="private" depart="4.00" departLane="best" departPos="0.00" arrivalPos="-1.00">
        <route edges="203[0] 203[1] 203[1]b 202 34 113 209"/>
    </vehicle>
    <vehicle id="Togliatti_71_3" type="private" depart="4.00" departLane="best" departPos="0.00" arrivalPos="-1.00">
        <route edges="85 72[0] 72[1] 69 161 122 3 2 202 34 113 209"/>
    </vehicle>
    <vehicle id="Vittorio_Veneto_2_1" type="private" depart="4.00" departLane="best" departPos="0.00" arrivalPos="-1.00">
        <route edges="224[0] 224[1] 181 18 17 71 67 80 127 77[1][0] 77[1][1]"/>
    </vehicle>
    <vehicle id="Costa_1_2" type="private" depart="5.00" departLane="best" departPos="0.00" arrivalPos="-1.00">
        <route edges="78[0] 56a 56b 77bc 77cd 53cd 53[0] 53[1][0] 79 68 11 86"/>
    </vehicle>
    <vehicle id="Pepoli_11_3" type="private" depart="5.00" departLane="best" departPos="0.00" arrivalPos="-1.00">
        <route edges="210 43[0] 43[1] 201 201c 204a[0] 124 114"/>
    </vehicle>
    <vehicle id="Pepoli_10_4" type="private" depart="6.00" departLane="best" departPos="0.00" arrivalPos="-1.00">
        <route edges="210 43[0] 43[1] 201 201c 204a[0] 204b[0] 204[1][0] 204[1][1]"/>
    </vehicle>
    <vehicle id="Costa_12_3" type="private" depart="7.00" departLane="best" departPos="0.00" arrivalPos="-1.00">
        <route edges="78[0] 56a 56b 77bc 77cd 53cd 53[0] 53[1][0] 79 68 11 84 180 136"/>
    </vehicle>
    <vehicle id="Silvani_7_3" type="private" depart="7.00" departLane="best" departPos="0.00" arrivalPos="-1.00">
        <route edges="203[0] 203[1] 203[1]b 202 34 113 209"/>
    </vehicle>
    <vehicle id="Togliatti_72_5" type="private" depart="7.00" departLane="best" departPos="0.00" arrivalPos="-1.00">
        <route edges="85 67 80 127 77[1][0] 77ab 77bc 77cd 53cd 53[0] 78[1][1] 189[0] 189[1][0]+20000 189[1][1] 188 87[0] 20001+87[1][0] 87[1][1] m90 89[0] 20002+89[1][0] 89[1][1] 91 186 109[0] 109[1][0]+20003 109[1][1] 116 46 113 209"/>
    </vehicle>
    <vehicle id="Pepoli_11_5" type="private" depart="8.00" departLane="best" departPos="0.00" arrivalPos="-1.00">
        <route edges="210 43[0] 43[1] 201 201c 204a[0] 124 114"/>
    </vehicle>
    <vehicle id="Togliatti_71_6" type="private" depart="8.00" departLane="best" departPos="0.00" arrivalPos="-1.00">
        <route edges="85 72[0] 72[1] 69 161 122 3 2 202 34 113 209"/>
    </vehicle>
    <vehicle id="Silvani_7_4" type="private" depart="9.00" departLane="best" departPos="0.00" arrivalPos="-1.00">
        <route edges="203[0] 203[1] 203[1]b 202 34 113 209"/>
    </vehicle>
    <vehicle id="Togliatti_10_7" type="private" depart="9.00" departLane="best" departPos="0.00" arrivalPos="-1.00">
        <route edges="85 72[0] 72[1] 69 161 122 1b 1 204a[0] 204b[0] 204[1][0] 204[1][1]"/>
    </vehicle>
    <vehicle id="Costa_1_4" type="private" depart="10.00" departLane="best" departPos="0.00" arrivalPos="-1.00">
        <route edges="78[0] 56a 56b 77bc 77cd 53cd 53[0] 53[1][0] 79 68 11 86"/>
    </vehicle>
    <vehicle id="Pepoli_11_6" type="private" depart="10.00" departLane="best" departPos="0.00" arrivalPos="-1.00">
        <route edges="210 43[0] 43[1] 201 201c 204a[0] 124 114"/>
    </vehicle>
    <vehicle id="XXI_Aprile_94_3" type="private" depart="10.00" departLane="best" departPos="0.00" arrivalPos="-1.00">
        <route edges="13 104 24 22 59 53cd 53[0] 78[1][1] 189[0] 189[1][0]+20000 189[1][1] 188 87[0] 20001+87[1][0] 87[1][1] m90 171 161 122 1b 1 204a[0] 204b[0] 54"/>
    </vehicle>
    <vehicle id="Silvani_7_5" type="private" depart="11.00" departLane="best" departPos="0.00" arrivalPos="-1.00">
        <route edges="203[0] 203[1] 203[1]b 202 34 113 209"/>
    </vehicle>
    <vehicle id="Togliatti_2_8" type="private" depart="11.00" departLane="best" departPos="0.00" arrivalPos="-1.00">
        <route edges="85 67 80 127 77[1][0] 77[1][1]"/>
    </vehicle>
    <vehicle id="Pepoli_11_7" type="private" depart="12.00" departLane="best" departPos="0.00" arrivalPos="-1.00">
        <route edges="210 43[0] 43[1] 201 201c 204a[0] 124 114"/>
    </vehicle>
    <vehicle id="Togliatti_10_9" type="private" depart="12.00" departLane="best" departPos="0.00" arrivalPos="-1.00">
        <route edges="85 72[0] 72[1] 69 161 122 1b 1 204a[0] 204b[0] 204[1][0] 204[1][1]"/>
    </vehicle>
    <vehicle id="Pepoli_11_8" type="private" depart="13.00" departLane="best" departPos="0.00" arrivalPos="-1.00">
        <route edges="210 43[0] 43[1] 201 201c 204a[0] 124 114"/>
    </vehicle>
    <vehicle id="Silvani_3_6" type="ignoring" depart="14.00" departLane="best" departPos="0.00" arrivalPos="-1.00">
        <route edges="203[0] 203[1] 203[1]b 202 34 113 118 65 57[0] 57[1] 62 159 42 39 35 38 15 14"/>
    </vehicle>
    <vehicle id="Togliatti_10_10" type="private" depart="14.00" departLane="best" departPos="0.00" arrivalPos="-1.00">
        <route edges="85 72[0] 72[1] 69 161 122 1b 1 204a[0] 204b[0] 204[1][0] 204[1][1]"/>
    </vehicle>
    <vehicle id="XXI_Aprile_113_4" type="private" depart="14.00" departLane="best" departPos="0.00" arrivalPos="-1.00">
        <route edges="13 104 24 22 59 53cd 53[0] 53[1][0] 79 74 72[1] 69 161 122 1b 1 204a[0] 124 114"/>
    </vehicle>
    <vehicle id="Costa_50_6" type="private" depart="15.00" departLane="best" departPos="0.00" arrivalPos="-1.00">
        <route edges="78[0] 56a 56b 77bc 77cd 53cd 53[0] 78[1][1] 189[0] 189[1][0]+20000 189[1][1] 188 87[0] 20001+87[1][0] 87[1][1] m90 89[0] 20002+89[1][0] 89[1][1] 91 186 109[0] 109[1][0]+20003 109[1][1] 120 65 200 60"/>
    </vehicle>
    <vehicle id="Pepoli_11_9" type="private" depart="15.00" departLane="best" departPos="0.00" arrivalPos="-1.00">
        <route edges="210 43[0] 43[1] 201 201c 204a[0] 124 114"/>
    </vehicle>
    <vehicle id="Silvani_7_7" type="private" depart="16.00" departLane="best" departPos="0.00" arrivalPos="-1.00">
        <route edges="203[0] 203[1] 203[1]b 202 34 113 209"/>
    </vehicle>
    <vehicle id="Pepoli_10_10" type="private" depart="17.00" departLane="best" departPos="0.00" arrivalPos="-1.00">
        <route edges="210 43[0] 43[1] 201 201c 204a[0] 204b[0] 204[1][0] 204[1][1]"/>
    </vehicle>
    <vehicle id="Togliatti_10_12" type="private" depart="17.00" departLane="best" departPos="0.00" arrivalPos="-1.00">
        <route edges="85 72[0] 72[1] 69 161 122 1b 1 204a[0] 204b[0] 204[1][0] 204[1][1]"/>
    </vehicle>
    <vehicle id="XXI_Aprile_104_5" type="private" depart="17.00" departLane="best" departPos="0.00" arrivalPos="-1.00">
        <route edges="13 104 24 22 59 53cd 53[0] 78[1][1] 189[0] 189[1][0]+20000 189[1][1] 191 69 161 122 1b 1 204a[0] 204b[0] 204[1][0] 204[1][1]"/>
    </vehicle>
    <vehicle id="Costa_12_7" type="private" depart="18.00" departLane="best" departPos="0.00" arrivalPos="-1.00">
        <route edges="78[0] 56a 56b 77bc 77cd 53cd 53[0] 53[1][0] 79 68 11 84 180 136"/>
    </vehicle>
    <vehicle id="Pepoli_10_11" type="private" depart="18.00" departLane="best" departPos="0.00" arrivalPos="-1.00">
        <route edges="210 43[0] 43[1] 201 201c 204a[0] 204b[0] 204[1][0] 204[1][1]"/>
    </vehicle>
    <vehicle id="Silvani_11_8" type="private" depart="18.00" departLane="best" departPos="0.00" arrivalPos="-1.00">
        <route edges="203[0] 114"/>
    </vehicle>
    <vehicle id="Togliatti_9_13" type="private" depart="18.00" departLane="best" departPos="0.00" arrivalPos="-1.00">
        <route edges="85 72[0] 72[1] 69 161 122 1b 1 204a[0] 204b[0] 54"/>
    </vehicle>
    <vehicle id="Vittorio_Veneto_1_4" type="private" depart="18.00" departLane="best" departPos="0.00" arrivalPos="-1.00">
        <route edges="224[0] 224[1] 181 18 17 71 86"/>
    </vehicle>
    <vehicle id="Costa_50_8" type="private" depart="20.00" departLane="best" departPos="0.00" arrivalPos="-1.00">
        <route edges="78[0] 56a 56b 77bc 77cd 53cd 53[0] 78[1][1] 189[0] 189[1][0]+20000 189[1][1] 188 87[0] 20001+87[1][0] 87[1][1] m90 89[0] 20002+89[1][0] 89[1][1] 91 186 109[0] 109[1][0]+20003 109[1][1] 120 65 200 60"/>
    </vehicle>
    <vehicle id="Pepoli_3_12" type="ignoring" depart="20.00" departLane="best" departPos="0.00" arrivalPos="-1.00">
        <route edges="210 43[0] 118 65 57[0] 57[1] 62 159 42 39 35 38 15 14"/>
    </vehicle>
    <vehicle id="Audinot_12_1" type="ignoring" depart="21.00" departLane="best" departPos="0.00" arrivalPos="-1.00">
        <route edges="131 65 57[0] 57[1] 62 159 42 39 35 38 15 24 22 59 53cd 53[0] 53[1][0] 79 68 11 84 180 136"/>
    </vehicle>
    <vehicle id="Silvani_11_9" type="private" depart="21.00" departLane="best" departPos="0.00" arrivalPos="-1.00">
        <route edges="203[0] 114"/>
    </vehicle>
    <vehicle id="Togliatti_12_15" type="private" depart="21.00" departLane="best" departPos="0.00" arrivalPos="-1.00">
        <route edges="85 84 180 136"/>
    </vehicle>
    <vehicle id="XXI_Aprile_12_6" type="private" depart="21.00" departLane="best" departPos="0.00" arrivalPos="-1.00">
        <route edges="13 104 24 22 59 53cd 53[0] 53[1][0] 79 68 11 84 180 136"/>
    </vehicle>
    <vehicle id="Costa_12_9" type="private" depart="23.00" departLane="best" departPos="0.00" arrivalPos="-1.00">
        <route edges="78[0] 56a 56b 77bc 77cd 53cd 53[0] 53[1][0] 79 68 11 84 180 136"/>
    </vehicle>
    <vehicle id="Silvani_7_10" type="private" depart="23.00" departLane="best" departPos="0.00" arrivalPos="-1.00">
        <route edges="203[0] 203[1] 203[1]b 202 34 113 209"/>
    </vehicle>
    <vehicle id="Pepoli_3_14" type="ignoring" depart="24.00" departLane="best" departPos="0.00" arrivalPos="-1.00">
        <route edges="210 43[0] 118 65 57[0] 57[1] 62 159 42 39 35 38 15 14"/>
    </vehicle>
    <vehicle id="Togliatti_71_17" type="private" depart="24.00" departLane="best" departPos="0.00" arrivalPos="-1.00">
        <route edges="85 72[0] 72[1] 69 161 122 3 2 202 34 113 209"/>
    </vehicle>
    <vehicle id="XXI_Aprile_7_7" type="private" depart="24.00" departLane="best" departPos="0.00" arrivalPos="-1.00">
        <route edges="8 13 104 16 37 36 40 41 160 61 58[0] 58[1] 66 117 209"/>
    </vehicle>
    <vehicle id="Pepoli_11_15" type="private" depart="25.00" departLane="best" departPos="0.00" arrivalPos="-1.00">
        <route edges="210 43[0] 43[1] 201 201c 204a[0] 124 114"/>
    </vehicle>
    <vehicle id="Silvani_7_11" type="private" depart="25.00" departLane="best" departPos="0.00" arrivalPos="-1.00">
        <route edges="203[0] 203[1] 203[1]b 202 34 113 209"/>
    </vehicle>
    <vehicle id="Togliatti_3_18" type="private" depart="25.00" departLane="best" departPos="0.00" arrivalPos="-1.00">
        <route edges="85 67 80 127 77[1][0] 77ab 77bc 21a 21b 103 14"/>
    </vehicle>
    <vehicle id="Pepoli_8_16" type="private" depart="27.00" departLane="best" departPos="0.00" arrivalPos="-1.00">
        <route edges="210 43[0] 43[1] 134 134b"/>
    </vehicle>
    <vehicle id="Togliatti_71_19" type="private" depart="27.00" departLane="best" departPos="0.00" arrivalPos="-1.00">
        <route edges="85 72[0] 72[1] 69 161 122 3 2 202 34 113 209"/>
    </vehicle>
    <vehicle id="Vittorio_Veneto_2_6" type="private" depart="27.00" departLane="best" departPos="0.00" arrivalPos="-1.00">
        <route edges="224[0] 224[1] 181 18 17 71 67 80 127 77[1][0] 77[1][1]"/>
    </vehicle>
    <vehicle id="Costa_12_11" type="private" depart="28.00" departLane="best" departPos="0.00" arrivalPos="-1.00">
        <route edges="78[0] 56a 56b 77bc 77cd 53cd 53[0] 53[1][0] 79 68 11 84 180 136"/>
    </vehicle>
    <vehicle id="Silvani_11_12" type="private" depart="28.00" departLane="best" departPos="0.00" arrivalPos="-1.00">
        <route edges="203[0] 114"/>
    </vehicle>
    <vehicle id="Togliatti_10_20" type="private" depart="28.00" departLane="best" departPos="0.00" arrivalPos="-1.00">
        <route edges="85 72[0] 72[1] 69 161 122 1b 1 204a[0] 204b[0] 204[1][0] 204[1][1]"/>
    </vehicle>
    <vehicle id="XXI_Aprile_7_8" type="private" depart="28.00" departLane="best" departPos="0.00" arrivalPos="-1.00">
        <route edges="8 9 211 45 206 32 40 41 160 61 58[0] 58[1] 66 117 209"/>
    </vehicle>
    <vehicle id="Pepoli_11_17" type="private" depart="29.00" departLane="best" departPos="0.00" arrivalPos="-1.00">
        <route edges="210 43[0] 43[1] 201 201c 204a[0] 124 114"/>
    </vehicle>
    <vehicle id="Togliatti_9_21" type="private" depart="29.00" departLane="best" departPos="0.00" arrivalPos="-1.00">
        <route edges="85 72[0] 72[1] 69 161 122 1b 1 204a[0] 204b[0] 54"/>
    </vehicle>
    <vehicle id="Pepoli_10_18" type="private" depart="30.00" departLane="best" departPos="0.00" arrivalPos="-1.00">
        <route edges="210 43[0] 43[1] 201 201c 204a[0] 204b[0] 204[1][0] 204[1][1]"/>
    </vehicle>
    <vehicle id="Silvani_11_13" type="private" depart="30.00" departLane="best" departPos="0.00" arrivalPos="-1.00">
        <route edges="203[0] 114"/>
    </vehicle>
    <vehicle id="Togliatti_9_22" type="private" depart="31.00" departLane="best" departPos="0.00" arrivalPos="-1.00">
        <route edges="85 72[0] 72[1] 69 161 122 1b 1 204a[0] 204b[0] 54"/>
    </vehicle>
    <vehicle id="Pepoli_10_19" type="private" depart="32.00" departLane="best" departPos="0.00" arrivalPos="-1.00">
        <route edges="210 43[0] 43[1] 201 201c 204a[0] 204b[0] 204[1][0] 204[1][1]"/>
    </vehicle>
    <vehicle id="Vittorio_Veneto_3_7" type="private" depart="32.00" departLane="best" departPos="0.00" arrivalPos="-1.00">
        <route edges="224[0] 224[1] 181 18 17 71 67 80 127 77[1][0] 77ab 77bc 21a 21b 103 14"/>
    </vehicle>
    <vehicle id="Costa_12_13" type="private" depart="33.00" departLane="best" departPos="0.00" arrivalPos="-1.00">
        <route edges="78[0] 56a 56b 77bc 77cd 53cd 53[0] 53[1][0] 79 68 11 84 180 136"/>
    </vehicle>
    <vehicle id="Silvani_11_14" type="private" depart="33.00" departLane="best" departPos="0.00" arrivalPos="-1.00">
        <route edges="203[0] 114"/>
    </vehicle>
    <vehicle id="Pepoli_10_20" type="private" depart="34.00" departLane="best" departPos="0.00" arrivalPos="-1.00">
        <route edges="210 43[0] 43[1] 201 201c 204a[0] 204b[0] 204[1][0] 204[1][1]"/>
    </vehicle>
    <vehicle id="Togliatti_12_24" type="private" depart="34.00" departLane="best" departPos="0.00" arrivalPos="-1.00">
        <route edges="85 84 180 136"/>
    </vehicle>
    <vehicle id="Turati_10_1" type="private" depart="34.00" departLane="best" departPos="0.00" arrivalPos="-1.00">
        <route edges="195 61 58[0] 58[1] 66 119 116 46 201 201c 204a[0] 204b[0] 204[1][0] 204[1][1]"/>
    </vehicle>
    <vehicle id="Silvani_7_15" type="private" depart="35.00" departLane="best" departPos="0.00" arrivalPos="-1.00">
        <route edges="203[0] 203[1] 203[1]b 202 34 113 209"/>
    </vehicle>
    <vehicle id="Togliatti_71_25" type="private" depart="35.00" departLane="best" departPos="0.00" arrivalPos="-1.00">
        <route edges="85 72[0] 72[1] 69 161 122 3 2 202 34 113 209"/>
    </vehicle>
    <vehicle id="XXI_Aprile_12_10" type="private" depart="35.00" departLane="best" departPos="0.00" arrivalPos="-1.00">
        <route edges="13 104 24 22 59 53cd 53[0] 53[1][0] 79 68 11 84 180 136"/>
    </vehicle>
    <vehicle id="Costa_12_14" type="private" depart="36.00" departLane="best" departPos="0.00" arrivalPos="-1.00">
        <route edges="78[0] 56a 56b 77bc 77cd 53cd 53[0] 53[1][0] 79 68 11 84 180 136"/>
    </vehicle>
    <vehicle id="Pepoli_8_21" type="private" depart="36.00" departLane="best" departPos="0.00" arrivalPos="-1.00">
        <route edges="210 43[0] 43[1] 134 134b"/>
    </vehicle>
    <vehicle id="Pepoli_10_22" type="private" depart="37.00" departLane="best" departPos="0.00" arrivalPos="-1.00">
        <route edges="210 43[0] 43[1] 201 201c 204a[0] 204b[0] 204[1][0] 204[1][1]"/>
    </vehicle>
    <vehicle id="Silvani_11_16" type="private" depart="37.00" departLane="best" departPos="0.00" arrivalPos="-1.00">
        <route edges="203[0] 114"/>
    </vehicle>
    <vehicle id="Togliatti_80_26" type="private" depart="37.00" departLane="best" departPos="0.00" arrivalPos="-1.00">
        <route edges="85 72[0] 72[1] 69 161 122 3 2 202 34 134 134b"/>
    </vehicle>
    <vehicle id="Togliatti_10_27" type="private" depart="38.00" departLane="best" departPos="0.00" arrivalPos="-1.00">
        <route edges="85 72[0] 72[1] 69 161 122 1b 1 204a[0] 204b[0] 204[1][0] 204[1][1]"/>
    </vehicle>
    <vehicle id="Costa_1_15" type="private" depart="39.00" departLane="best" departPos="0.00" arrivalPos="-1.00">
        <route edges="78[0] 56a 56b 77bc 77cd 53cd 53[0] 53[1][0] 79 68 11 86"/>
    </vehicle>
    <vehicle id="Pepoli_8_23" type="private" depart="39.00" departLane="best" departPos="0.00" arrivalPos="-1.00">
        <route edges="210 43[0] 43[1] 134 134b"/>
    </vehicle>
    <vehicle id="Togliatti_10_28" type="private" depart="39.00" departLane="best" departPos="0.00" arrivalPos="-1.00">
        <route edges="85 72[0] 72[1] 69 161 122 1b 1 204a[0] 204b[0] 204[1][0] 204[1][1]"/>
    </vehicle>
    <vehicle id="XXI_Aprile_12_11" type="private" depart="39.00" departLane="best" departPos="0.00" arrivalPos="-1.00">
        <route edges="13 104 24 22 59 53cd 53[0] 53[1][0] 79 68 11 84 180 136"/>
    </vehicle>
    <vehicle id="Silvani_11_17" type="private" depart="40.00" departLane="best" departPos="0.00" arrivalPos="-1.00">
        <route edges="203[0] 114"/>
    </vehicle>
    <vehicle id="Costa_700_16" type="private" depart="41.00" departLane="best" departPos="0.00" arrivalPos="-1.00">
        <route edges="78[0] 56a 56b 77bc 77cd 53cd 53[0] 78[1][1] 189[0] 189[1][0]+20000 189[1][1] 188 87[0] 20001+87[1][0] 87[1][1] m90 89[0] 20002+89[1][0] 89[1][1] 91 186 109[0] 109[1][0]+20003 109[1][1] 120 117 209"/>
    </vehicle>
    <vehicle id="Pepoli_11_24" type="private" depart="41.00" departLane="best" departPos="0.00" arrivalPos="-1.00">
        <route edges="210 43[0] 43[1] 201 201c 204a[0] 124 114"/>
    </vehicle>
    <vehicle id="Audinot_10_2" type="private" depart="42.00" departLane="best" departPos="0.00" arrivalPos="-1.00">
        <route edges="131 119 116 46 201 201c 204a[0] 204b[0] 204[1][0] 204[1][1]"/>
    </vehicle>
    <vehicle id="Pepoli_8_25" type="private" depart="42.00" departLane="best" departPos="0.00" arrivalPos="-1.00">
        <route edges="210 43[0] 43[1] 134 134b"/>
    </vehicle>
    <vehicle id="Silvani_7_18" type="private" depart="42.00" departLane="best" departPos="0.00" arrivalPos="-1.00">
        <route edges="203[0] 203[1] 203[1]b 202 34 113 209"/>
    </vehicle>
    <vehicle id="Togliatti_10_30" type="private" depart="42.00" departLane="best" departPos="0.00" arrivalPos="-1.00">
        <route edges="85 72[0] 72[1] 69 161 122 1b 1 204a[0] 204b[0] 204[1][0] 204[1][1]"/>
    </vehicle>
    <vehicle id="XXI_Aprile_2_12" type="private" depart="42.00" departLane="best" departPos="0.00" arrivalPos="-1.00">
        <route edges="13 104 24 22 59 53cd 53[0] 53[1][0] 53[1][1][0] 77[1][0] 77[1][1]"/>
    </vehicle>
    <vehicle id="Costa_1_17" type="private" depart="44.00" departLane="best" departPos="0.00" arrivalPos="-1.00">
        <route edges="78[0] 56a 56b 77bc 77cd 53cd 53[0] 53[1][0] 79 68 11 86"/>
    </vehicle>
    <vehicle id="Silvani_7_19" type="private" depart="44.00" departLane="best" departPos="0.00" arrivalPos="-1.00">
        <route edges="203[0] 203[1] 203[1]b 202 34 113 209"/>
    </vehicle>
    <vehicle id="Togliatti_3_31" type="private" depart="44.00" departLane="best" departPos="0.00" arrivalPos="-1.00">
        <route edges="85 67 80 127 77[1][0] 77ab 77bc 21a 21b 103 14"/>
    </vehicle>
    <vehicle id="Togliatti_2_32" type="private" depart="45.00" departLane="best" departPos="0.00" arrivalPos="-1.00">
        <route edges="85 67 80 127 77[1][0] 77[1][1]"/>
    </vehicle>
    <vehicle id="Vittorio_Veneto_1_10" type="private" depart="45.00" departLane="best" departPos="0.00" arrivalPos="-1.00">
        <route edges="224[0] 224[1] 181 18 17 71 86"/>
    </vehicle>
    <vehicle id="Pepoli_10_27" type="private" depart="46.00" departLane="best" departPos="0.00" arrivalPos="-1.00">
        <route edges="210 43[0] 43[1] 201 201c 204a[0] 204b[0] 204[1][0] 204[1][1]"/>
    </vehicle>
    <vehicle id="Togliatti_10_33" type="private" depart="46.00" departLane="best" departPos="0.00" arrivalPos="-1.00">
        <route edges="85 72[0] 72[1] 69 161 122 1b 1 204a[0] 204b[0] 204[1][0] 204[1][1]"/>
    </vehicle>
    <vehicle id="XXI_Aprile_7_13" type="private" depart="46.00" departLane="best" departPos="0.00" arrivalPos="-1.00">
        <route edges="8 13 104 16 37 36 40 41 160 61 58[0] 58[1] 66 117 209"/>
    </vehicle>
    <vehicle id="Costa_12_18" type="private" depart="47.00" departLane="best" departPos="0.00" arrivalPos="-1.00">
        <route edges="78[0] 56a 56b 77bc 77cd 53cd 53[0] 53[1][0] 79 68 11 84 180 136"/>
    </vehicle>
    <vehicle id="Silvani_7_20" type="private" depart="47.00" departLane="best" departPos="0.00" arrivalPos="-1.00">
        <route edges="203[0] 203[1] 203[1]b 202 34 113 209"/>
    </vehicle>
    <vehicle id="Pepoli_8_28" type="private" depart="48.00" departLane="best" departPos="0.00" arrivalPos="-1.00">
        <route edges="210 43[0] 43[1] 134 134b"/>
    </vehicle>
    <vehicle id="Costa_1_19" type="private" depart="49.00" departLane="best" departPos="0.00" arrivalPos="-1.00">
        <route edges="78[0] 56a 56b 77bc 77cd 53cd 53[0] 53[1][0] 79 68 11 86"/>
    </vehicle>
    <vehicle id="Pepoli_11_29" type="private" depart="49.00" departLane="best" departPos="0.00" arrivalPos="-1.00">
        <route edges="210 43[0] 43[1] 201 201c 204a[0] 124 114"/>
    </vehicle>
    <vehicle id="Silvani_7_21" type="private" depart="49.00" departLane="best" departPos="0.00" arrivalPos="-1.00">
        <route edges="203[0] 203[1] 203[1]b 202 34 113 209"/>
    </vehicle>
    <vehicle id="Togliatti_10_35" type="private" depart="49.00" departLane="best" departPos="0.00" arrivalPos="-1.00">
        <route edges="85 72[0] 72[1] 69 161 122 1b 1 204a[0] 204b[0] 204[1][0] 204[1][1]"/>
    </vehicle>
    <vehicle id="XXI_Aprile_9_14" type="private" depart="49.00" departLane="best" departPos="0.00" arrivalPos="-1.00">
        <route edges="13 104 24 22 59 53cd 53[0] 78[1][1] 189[0] 189[1][0]+20000 189[1][1] 191 69 161 122 1b 1 204a[0] 204b[0] 54"/>
    </vehicle>
    <vehicle id="Vittorio_Veneto_2_11" type="private" depart="50.00" departLane="best" departPos="0.00" arrivalPos="-1.00">
        <route edges="224[0] 224[1] 181 18 17 71 67 80 127 77[1][0] 77[1][1]"/>
    </vehicle>
    <vehicle id="Pepoli_11_30" type="private" depart="51.00" departLane="best" departPos="0.00" arrivalPos="-1.00">
        <route edges="210 43[0] 43[1] 201 201c 204a[0] 124 114"/>
    </vehicle>
    <vehicle id="Silvani_7_22" type="private" depart="51.00" departLane="best" departPos="0.00" arrivalPos="-1.00">
        <route edges="203[0] 203[1] 203[1]b 202 34 113 209"/>
    </vehicle>
    <vehicle id="Togliatti_72_36" type="private" depart="51.00" departLane="best" departPos="0.00" arrivalPos="-1.00">
        <route edges="85 67 80 127 77[1][0] 77ab 77bc 77cd 53cd 53[0] 78[1][1] 189[0] 189[1][0]+20000 189[1][1] 188 87[0] 20001+87[1][0] 87[1][1] m90 89[0] 20002+89[1][0] 89[1][1] 91 186 109[0] 109[1][0]+20003 109[1][1] 116 46 113 209"/>
    </vehicle>
    <vehicle id="Costa_50_20" type="private" depart="52.00" departLane="best" departPos="0.00" arrivalPos="-1.00">
        <route edges="78[0] 56a m1 21b 103 16 37 36 40 41 160 61 58[0] 58[1] 200 60"/>
    </vehicle>
    <vehicle id="Togliatti_10_37" type="private" depart="52.00" departLane="best" departPos="0.00" arrivalPos="-1.00">
        <route edges="85 72[0] 72[1] 69 161 122 1b 1 204a[0] 204b[0] 204[1][0] 204[1][1]"/>
    </vehicle>
    <vehicle id="Pepoli_10_31" type="private" depart="53.00" departLane="best" departPos="0.00" arrivalPos="-1.00">
        <route edges="210 43[0] 43[1] 201 201c 204a[0] 204b[0] 204[1][0] 204[1][1]"/>
    </vehicle>
    <vehicle id="XXI_Aprile_7_15" type="private" depart="53.00" departLane="best" departPos="0.00" arrivalPos="-1.00">
        <route edges="8 13 104 16 37 36 40 41 160 61 58[0] 58[1] 66 117 209"/>
    </vehicle>
    <vehicle id="Costa_3_21" type="private" depart="54.00" departLane="best" departPos="0.00" arrivalPos="-1.00">
        <route edges="78[0] 56a m1 21b 103 14"/>
    </vehicle>
    <vehicle id="Pepoli_11_32" type="private" depart="54.00" departLane="best" departPos="0.00" arrivalPos="-1.00">
        <route edges="210 43[0] 43[1] 201 201c 204a[0] 124 114"/>
    </vehicle>
    <vehicle id="Silvani_11_23" type="private" depart="54.00" departLane="best" departPos="0.00" arrivalPos="-1.00">
        <route edges="203[0] 114"/>
    </vehicle>
    <vehicle id="Togliatti_9_38" type="private" depart="54.00" departLane="best" departPos="0.00" arrivalPos="-1.00">
        <route edges="85 72[0] 72[1] 69 161 122 1b 1 204a[0] 204b[0] 54"/>
    </vehicle>
    <vehicle id="Togliatti_3_39" type="private" depart="55.00" departLane="best" departPos="0.00" arrivalPos="-1.00">
        <route edges="85 67 80 127 77[1][0] 77ab 77bc 21a 21b 103 14"/>
    </vehicle>
    <vehicle id="Vittorio_Veneto_1_12" type="private" depart="55.00" departLane="best" departPos="0.00" arrivalPos="-1.00">
        <route edges="224[0] 224[1] 181 18 17 71 86"/>
    </vehicle>
    <vehicle id="Pepoli_10_33" type="private" depart="56.00" departLane="best" departPos="0.00" arrivalPos="-1.00">
        <route edges="210 43[0] 43[1] 201 201c 204a[0] 204b[0] 204[1][0] 204[1][1]"/>
    </vehicle>
    <vehicle id="Silvani_11_24" type="private" depart="56.00" departLane="best" departPos="0.00" arrivalPos="-1.00">
        <route edges="203[0] 114"/>
    </vehicle>
    <vehicle id="Togliatti_2_40" type="private" depart="56.00" departLane="best" departPos="0.00" arrivalPos="-1.00">
        <route edges="85 67 80 127 77[1][0] 77[1][1]"/>
    </vehicle>
    <vehicle id="XXI_Aprile_7_16" type="private" depart="56.00" departLane="best" departPos="0.00" arrivalPos="-1.00">
        <route edges="8 13 104 16 37 36 40 41 160 61 58[0] 58[1] 66 117 209"/>
    </vehicle>
    <vehicle id="Costa_50_22" type="private" depart="57.00" departLane="best" departPos="0.00" arrivalPos="-1.00">
        <route edges="78[0] 56a 56b 77bc 77cd 53cd 53[0] 78[1][1] 189[0] 189[1][0]+20000 189[1][1] 188 87[0] 20001+87[1][0] 87[1][1] m90 89[0] 20002+89[1][0] 89[1][1] 91 186 109[0] 109[1][0]+20003 109[1][1] 120 65 200 60"/>
    </vehicle>
    <vehicle id="Pepoli_10_34" type="private" depart="58.00" departLane="best" departPos="0.00" arrivalPos="-1.00">
        <route edges="210 43[0] 43[1] 201 201c 204a[0] 204b[0] 204[1][0] 204[1][1]"/>
    </vehicle>
    <vehicle id="Silvani_3_25" type="ignoring" depart="58.00" departLane="best" departPos="0.00" arrivalPos="-1.00">