<edges>
  <edge id="114" numLanes="1"/>
</edges>
