<?xml version="1.0" encoding="UTF-8"?>
<sumoConfiguration xmlns:xsi="http://www.w3.org/2001/XMLSchema-instance" xsi:noNamespaceSchemaLocation="http://sumo.dlr.de/xsd/sumoConfiguration.xsd">
    <input>
        <net-file value="acosta_buslanes.net.xml"/>
        <route-files value="priced_routes2.rou.xml,acosta_busses.rou.xml"/>
        <additional-files value="acosta_vtypes.add.xml,acosta_detectors.add.xml,acosta_bus_stops.add.xml,acosta_tls.add.xml,priced_edgedata2.add.xml"/>
    </input>
    <output>
        <tripinfo-output value="tripinfos_priced2.xml"/>
    </output>
</sumoConfiguration>
